<?xml version="1.0" encoding="UTF-8"?>

<!-- generated on 2025-10-16 20:21:37 by Eclipse SUMO netedit Version 1.22.0
<neteditConfiguration xmlns:xsi="http://www.w3.org/2001/XMLSchema-instance" xsi:noNamespaceSchemaLocation="http://sumo.dlr.de/xsd/neteditConfiguration.xsd">

    <input>
        <sumocfg-file value="osm.sumocfg"/>
        <additional-files value="osm.poly.xml.gz"/>
        <route-files value="osm.passenger.trips.xml"/>
        <sumo-net-file value="C:\sumo_tesis\osm_actuated.net.xml"/>
    </input>

    <output>
        <output-file value="C:\sumo_tesis\osm_actuated.net.xml"/>
        <output.street-names value="true"/>
    </output>

    <processing>
        <geometry.min-radius.fix.railways value="false"/>
        <geometry.max-grade.fix value="false"/>
        <offset.disable-normalization value="true"/>
        <lefthand value="0"/>
    </processing>

    <junctions>
        <no-turnarounds value="true"/>
        <junctions.corner-detail value="5"/>
        <junctions.limit-turn-speed value="5.50"/>
        <rectangular-lane-cut value="0"/>
    </junctions>

    <pedestrian>
        <walkingareas value="0"/>
    </pedestrian>

    <netedit>
        <ignore.routeelements value="false"/>
    </netedit>

</neteditConfiguration>
-->

<net version="1.20" junctionCornerDetail="5" limitTurnSpeed="5.50" xmlns:xsi="http://www.w3.org/2001/XMLSchema-instance" xsi:noNamespaceSchemaLocation="http://sumo.dlr.de/xsd/net_file.xsd">

    <location netOffset="-748438.06,3687917.99" convBoundary="0.00,0.00,1396.61,900.10" origBoundary="-66.332026,-33.301492,-66.316918,-33.293614" projParameter="+proj=utm +zone=19 +ellps=WGS84 +datum=WGS84 +units=m +no_defs"/>

    <type id="highway.footway" priority="1" numLanes="1" speed="2.78" allow="pedestrian" oneway="1" width="2.00"/>
    <type id="highway.residential" priority="3" numLanes="1" speed="13.89" disallow="tram rail_urban rail rail_electric rail_fast ship container cable_car subway aircraft wheelchair scooter drone" oneway="0"/>
    <type id="highway.secondary" priority="11" numLanes="1" speed="27.78" disallow="tram rail_urban rail rail_electric rail_fast ship container cable_car subway aircraft wheelchair scooter drone" oneway="0"/>
    <type id="highway.service" priority="1" numLanes="1" speed="5.56" allow="pedestrian delivery bicycle" oneway="0"/>
    <type id="highway.tertiary" priority="10" numLanes="1" speed="22.22" disallow="tram rail_urban rail rail_electric rail_fast ship container cable_car subway aircraft wheelchair scooter drone" oneway="0"/>

    <edge id=":1056968364_0" function="internal">
        <lane id=":1056968364_0_0" index="0" disallow="tram rail_urban rail rail_electric rail_fast ship container cable_car subway aircraft wheelchair scooter drone" speed="3.90" length="2.88" shape="203.34,29.07 202.53,29.02 201.94,29.24 201.57,29.75 201.41,30.55"/>
    </edge>
    <edge id=":1056968394_0" function="internal">
        <lane id=":1056968394_0_0" index="0" disallow="tram rail_urban rail rail_electric rail_fast ship container cable_car subway aircraft wheelchair scooter drone" speed="6.34" length="9.04" shape="193.77,263.95 191.27,264.01 189.45,264.87 188.31,266.53 187.86,269.00"/>
    </edge>
    <edge id=":1056968394_1" function="internal">
        <lane id=":1056968394_1_0" index="0" disallow="tram rail_urban rail rail_electric rail_fast ship container cable_car subway aircraft wheelchair scooter drone" speed="13.89" length="11.41" shape="193.77,263.95 182.44,262.64"/>
    </edge>
    <edge id=":1056968394_2" function="internal">
        <lane id=":1056968394_2_0" index="0" disallow="tram rail_urban rail rail_electric rail_fast ship container cable_car subway aircraft wheelchair scooter drone" speed="13.89" length="11.41" shape="188.44,257.60 187.86,269.00"/>
    </edge>
    <edge id=":1056968394_3" function="internal">
        <lane id=":1056968394_3_0" index="0" disallow="tram rail_urban rail rail_electric rail_fast ship container cable_car subway aircraft wheelchair scooter drone" speed="6.41" length="4.21" shape="188.44,257.60 187.93,260.04 186.94,261.45"/>
    </edge>
    <edge id=":1056968394_4" function="internal">
        <lane id=":1056968394_4_0" index="0" disallow="tram rail_urban rail rail_electric rail_fast ship container cable_car subway aircraft wheelchair scooter drone" speed="6.41" length="4.83" shape="186.94,261.45 186.76,261.70 184.93,262.56 182.44,262.64"/>
    </edge>
    <edge id=":1056968399_0" function="internal">
        <lane id=":1056968399_0_0" index="0" disallow="tram rail_urban rail rail_electric rail_fast ship container cable_car subway aircraft wheelchair scooter drone" speed="6.61" length="8.97" shape="165.02,704.73 165.24,707.17 166.17,708.99 167.82,710.20 170.18,710.79"/>
    </edge>
    <edge id=":1056968399_1" function="internal">
        <lane id=":1056968399_1_0" index="0" disallow="tram rail_urban rail rail_electric rail_fast ship container cable_car subway aircraft wheelchair scooter drone" speed="13.89" length="10.97" shape="165.02,704.73 164.42,715.68"/>
    </edge>
    <edge id=":1056968399_2" function="internal">
        <lane id=":1056968399_2_0" index="0" disallow="tram rail_urban rail rail_electric rail_fast ship container cable_car subway aircraft wheelchair scooter drone" speed="13.89" length="10.97" shape="159.28,709.56 170.18,710.79"/>
    </edge>
    <edge id=":1056968399_3" function="internal">
        <lane id=":1056968399_3_0" index="0" disallow="tram rail_urban rail rail_electric rail_fast ship container cable_car subway aircraft wheelchair scooter drone" speed="6.64" length="3.96" shape="159.28,709.56 161.65,710.20 162.86,711.10"/>
    </edge>
    <edge id=":1056968399_4" function="internal">
        <lane id=":1056968399_4_0" index="0" disallow="tram rail_urban rail rail_electric rail_fast ship container cable_car subway aircraft wheelchair scooter drone" speed="6.64" length="5.03" shape="162.86,711.10 163.30,711.43 164.22,713.25 164.42,715.68"/>
    </edge>
    <edge id=":1056968499_0" function="internal">
        <lane id=":1056968499_0_0" index="0" disallow="tram rail_urban rail rail_electric rail_fast ship container cable_car subway aircraft wheelchair scooter drone" speed="13.89" length="11.14" shape="50.75,356.29 51.68,345.19"/>
    </edge>
    <edge id=":1056968499_1" function="internal">
        <lane id=":1056968499_1_0" index="0" disallow="tram rail_urban rail rail_electric rail_fast ship container cable_car subway aircraft wheelchair scooter drone" speed="6.51" length="9.00" shape="50.75,356.29 51.30,353.90 52.49,352.25 54.32,351.34 56.78,351.19"/>
    </edge>
    <edge id=":1056968509_0" function="internal">
        <lane id=":1056968509_0_0" index="0" disallow="tram rail_urban rail rail_electric rail_fast ship container cable_car subway aircraft wheelchair scooter drone" speed="6.54" length="4.02" shape="13.98,811.28 11.61,810.63 10.37,809.68"/>
    </edge>
    <edge id=":1056968509_2" function="internal">
        <lane id=":1056968509_2_0" index="0" disallow="tram rail_urban rail rail_electric rail_fast ship container cable_car subway aircraft wheelchair scooter drone" speed="6.54" length="4.90" shape="10.37,809.68 10.00,809.40 9.13,807.57 9.02,805.17"/>
    </edge>
    <edge id=":1056968509_1" function="internal">
        <lane id=":1056968509_1_0" index="0" disallow="tram rail_urban rail rail_electric rail_fast ship container cable_car subway aircraft wheelchair scooter drone" speed="13.89" length="10.96" shape="7.97,816.08 9.02,805.17"/>
    </edge>
    <edge id=":1056968549_0" function="internal">
        <lane id=":1056968549_0_0" index="0" disallow="tram rail_urban rail rail_electric rail_fast ship container cable_car subway aircraft wheelchair scooter drone" speed="27.78" length="10.70" shape="386.08,281.59 384.67,292.12"/>
        <lane id=":1056968549_0_1" index="1" disallow="tram rail_urban rail rail_electric rail_fast ship container cable_car subway aircraft wheelchair scooter drone" speed="27.78" length="10.70" shape="382.92,281.09 381.49,291.77"/>
    </edge>
    <edge id=":1056968549_2" function="internal">
        <lane id=":1056968549_2_0" index="0" disallow="tram rail_urban rail rail_electric rail_fast ship container cable_car subway aircraft wheelchair scooter drone" speed="8.18" length="2.22" shape="382.92,281.09 381.92,283.08"/>
    </edge>
    <edge id=":1056968549_3" function="internal">
        <lane id=":1056968549_3_0" index="0" disallow="tram rail_urban rail rail_electric rail_fast ship container cable_car subway aircraft wheelchair scooter drone" speed="3.65" length="1.44" shape="382.92,281.09 381.94,282.15"/>
    </edge>
    <edge id=":1056968549_8" function="internal">
        <lane id=":1056968549_8_0" index="0" disallow="tram rail_urban rail rail_electric rail_fast ship container cable_car subway aircraft wheelchair scooter drone" speed="8.18" length="12.22" shape="381.92,283.08 381.82,283.28 379.34,284.64 375.47,285.18 370.23,284.89"/>
    </edge>
    <edge id=":1056968549_9" function="internal">
        <lane id=":1056968549_9_0" index="0" disallow="tram rail_urban rail rail_electric rail_fast ship container cable_car subway aircraft wheelchair scooter drone" speed="3.65" length="3.23" shape="381.94,282.15 381.09,282.42 380.36,281.91 379.76,280.60"/>
    </edge>
    <edge id=":1056968549_4" function="internal">
        <lane id=":1056968549_4_0" index="0" disallow="tram rail_urban rail rail_electric rail_fast ship container cable_car subway aircraft wheelchair scooter drone" speed="6.51" length="8.98" shape="375.13,291.07 375.05,288.61 374.21,286.76 372.60,285.52 370.23,284.89"/>
    </edge>
    <edge id=":1056968549_5" function="internal">
        <lane id=":1056968549_5_0" index="0" disallow="tram rail_urban rail rail_electric rail_fast ship container cable_car subway aircraft wheelchair scooter drone" speed="27.78" length="10.99" shape="375.13,291.07 376.59,280.10"/>
        <lane id=":1056968549_5_1" index="1" disallow="tram rail_urban rail rail_electric rail_fast ship container cable_car subway aircraft wheelchair scooter drone" speed="27.78" length="10.99" shape="378.31,291.42 379.76,280.60"/>
    </edge>
    <edge id=":1056968549_7" function="internal">
        <lane id=":1056968549_7_0" index="0" disallow="tram rail_urban rail rail_electric rail_fast ship container cable_car subway aircraft wheelchair scooter drone" speed="3.65" length="1.44" shape="378.31,291.42 379.24,290.31"/>
    </edge>
    <edge id=":1056968549_10" function="internal">
        <lane id=":1056968549_10_0" index="0" disallow="tram rail_urban rail rail_electric rail_fast ship container cable_car subway aircraft wheelchair scooter drone" speed="3.65" length="3.23" shape="379.24,290.31 380.08,290.00 380.83,290.49 381.49,291.77"/>
    </edge>
    <edge id=":1056968579_0" function="internal">
        <lane id=":1056968579_0_0" index="0" disallow="tram rail_urban rail rail_electric rail_fast ship container cable_car subway aircraft wheelchair scooter drone" speed="3.90" length="2.72" shape="157.82,828.19 157.67,828.93 157.32,829.43 156.77,829.68 156.02,829.69"/>
    </edge>
    <edge id=":1056968586_0" function="internal">
        <lane id=":1056968586_0_0" index="0" disallow="tram rail_urban rail rail_electric rail_fast ship container cable_car subway aircraft wheelchair scooter drone" speed="7.07" length="11.99" shape="64.50,165.98 65.12,162.09 66.44,159.50 68.46,158.18 71.19,158.15"/>
        <lane id=":1056968586_0_1" index="1" disallow="tram rail_urban rail rail_electric rail_fast ship container cable_car subway aircraft wheelchair scooter drone" speed="6.23" length="9.05" shape="64.50,165.98 65.01,163.50 66.19,161.89 68.04,161.16 70.57,161.29"/>
    </edge>
    <edge id=":1056968592_0" function="internal">
        <lane id=":1056968592_0_0" index="0" disallow="tram rail_urban rail rail_electric rail_fast ship container cable_car subway aircraft wheelchair scooter drone" speed="7.32" length="11.73" shape="37.46,557.44 35.08,556.66 33.50,554.84 32.73,552.00 32.77,548.13"/>
    </edge>
    <edge id=":1056968592_1" function="internal">
        <lane id=":1056968592_1_0" index="0" disallow="tram rail_urban rail rail_electric rail_fast ship container cable_car subway aircraft wheelchair scooter drone" speed="13.89" length="14.40" shape="31.33,562.47 32.77,548.13"/>
    </edge>
    <edge id=":1056968633_0" function="internal">
        <lane id=":1056968633_0_0" index="0" disallow="tram rail_urban rail rail_electric rail_fast ship container cable_car subway aircraft wheelchair scooter drone" speed="6.55" length="9.02" shape="184.47,355.68 184.72,358.14 185.69,359.94 187.37,361.09 189.78,361.58"/>
    </edge>
    <edge id=":1056968633_1" function="internal">
        <lane id=":1056968633_1_0" index="0" disallow="tram rail_urban rail rail_electric rail_fast ship container cable_car subway aircraft wheelchair scooter drone" speed="13.89" length="11.13" shape="184.47,355.68 183.98,366.79"/>
    </edge>
    <edge id=":1056968633_2" function="internal">
        <lane id=":1056968633_2_0" index="0" disallow="tram rail_urban rail rail_electric rail_fast ship container cable_car subway aircraft wheelchair scooter drone" speed="13.89" length="11.13" shape="178.68,360.82 189.78,361.58"/>
    </edge>
    <edge id=":1056968633_3" function="internal">
        <lane id=":1056968633_3_0" index="0" disallow="tram rail_urban rail rail_electric rail_fast ship container cable_car subway aircraft wheelchair scooter drone" speed="6.58" length="4.06" shape="178.68,360.82 181.10,361.36 182.40,362.26"/>
    </edge>
    <edge id=":1056968633_4" function="internal">
        <lane id=":1056968633_4_0" index="0" disallow="tram rail_urban rail rail_electric rail_fast ship container cable_car subway aircraft wheelchair scooter drone" speed="6.58" length="4.99" shape="182.40,362.26 182.79,362.53 183.75,364.34 183.98,366.79"/>
    </edge>
    <edge id=":1056968735_0" function="internal">
        <lane id=":1056968735_0_0" index="0" disallow="tram rail_urban rail rail_electric rail_fast ship container cable_car subway aircraft wheelchair scooter drone" speed="27.78" length="10.99" shape="376.31,367.67 374.98,378.61"/>
        <lane id=":1056968735_0_1" index="1" disallow="tram rail_urban rail rail_electric rail_fast ship container cable_car subway aircraft wheelchair scooter drone" speed="27.78" length="10.99" shape="373.13,367.32 371.81,378.20"/>
    </edge>
    <edge id=":1056968735_2" function="internal">
        <lane id=":1056968735_2_0" index="0" disallow="tram rail_urban rail rail_electric rail_fast ship container cable_car subway aircraft wheelchair scooter drone" speed="3.65" length="1.44" shape="373.13,367.32 372.20,368.42"/>
    </edge>
    <edge id=":1056968735_8" function="internal">
        <lane id=":1056968735_8_0" index="0" disallow="tram rail_urban rail rail_electric rail_fast ship container cable_car subway aircraft wheelchair scooter drone" speed="3.65" length="3.23" shape="372.20,368.42 371.36,368.73 370.61,368.25 369.95,366.97"/>
    </edge>
    <edge id=":1056968735_3" function="internal">
        <lane id=":1056968735_3_0" index="0" disallow="tram rail_urban rail rail_electric rail_fast ship container cable_car subway aircraft wheelchair scooter drone" speed="6.57" length="8.86" shape="360.67,371.58 363.12,371.39 364.95,370.50 366.17,368.91 366.77,366.61"/>
    </edge>
    <edge id=":1056968735_4" function="internal">
        <lane id=":1056968735_4_0" index="0" disallow="tram rail_urban rail rail_electric rail_fast ship container cable_car subway aircraft wheelchair scooter drone" speed="7.89" length="14.50" shape="360.67,371.58 365.83,372.25 369.41,373.58 371.40,375.56 371.81,378.20"/>
    </edge>
    <edge id=":1056968735_5" function="internal">
        <lane id=":1056968735_5_0" index="0" disallow="tram rail_urban rail rail_electric rail_fast ship container cable_car subway aircraft wheelchair scooter drone" speed="27.78" length="10.86" shape="365.46,377.37 366.77,366.61"/>
        <lane id=":1056968735_5_1" index="1" disallow="tram rail_urban rail rail_electric rail_fast ship container cable_car subway aircraft wheelchair scooter drone" speed="27.78" length="10.86" shape="368.64,377.78 369.95,366.97"/>
    </edge>
    <edge id=":1056968735_7" function="internal">
        <lane id=":1056968735_7_0" index="0" disallow="tram rail_urban rail rail_electric rail_fast ship container cable_car subway aircraft wheelchair scooter drone" speed="3.65" length="1.44" shape="368.64,377.78 369.58,376.70"/>
    </edge>
    <edge id=":1056968735_9" function="internal">
        <lane id=":1056968735_9_0" index="0" disallow="tram rail_urban rail rail_electric rail_fast ship container cable_car subway aircraft wheelchair scooter drone" speed="3.65" length="3.23" shape="369.58,376.70 370.43,376.40 371.17,376.90 371.81,378.20"/>
    </edge>
    <edge id=":1056968753_0" function="internal">
        <lane id=":1056968753_0_0" index="0" disallow="tram rail_urban rail rail_electric rail_fast ship container cable_car subway aircraft wheelchair scooter drone" speed="6.96" length="9.26" shape="193.44,177.08 193.67,179.46 194.64,181.33 196.35,182.69 198.79,183.53"/>
    </edge>
    <edge id=":1056968753_1" function="internal">
        <lane id=":1056968753_1_0" index="0" disallow="tram rail_urban rail rail_electric rail_fast ship container cable_car subway aircraft wheelchair scooter drone" speed="18.05" length="13.79" shape="193.44,177.08 192.64,190.85"/>
    </edge>
    <edge id=":1056968753_2" function="internal">
        <lane id=":1056968753_2_0" index="0" disallow="tram rail_urban rail rail_electric rail_fast ship container cable_car subway aircraft wheelchair scooter drone" speed="18.05" length="11.02" shape="187.98,181.33 198.79,183.53"/>
        <lane id=":1056968753_2_1" index="1" disallow="tram rail_urban rail rail_electric rail_fast ship container cable_car subway aircraft wheelchair scooter drone" speed="18.05" length="11.02" shape="187.36,184.47 198.14,186.66"/>
    </edge>
    <edge id=":1056968753_4" function="internal">
        <lane id=":1056968753_4_0" index="0" disallow="tram rail_urban rail rail_electric rail_fast ship container cable_car subway aircraft wheelchair scooter drone" speed="6.89" length="9.19" shape="187.36,184.47 189.79,185.28 191.48,186.62 192.43,188.48 192.64,190.85"/>
    </edge>
    <edge id=":1056968780_0" function="internal">
        <lane id=":1056968780_0_0" index="0" disallow="tram rail_urban rail rail_electric rail_fast ship container cable_car subway aircraft wheelchair scooter drone" speed="6.13" length="9.06" shape="420.64,74.85 418.13,74.39 416.22,74.90 414.92,76.39 414.23,78.85"/>
    </edge>
    <edge id=":1056968780_1" function="internal">
        <lane id=":1056968780_1_0" index="0" disallow="tram rail_urban rail rail_electric rail_fast ship container cable_car subway aircraft wheelchair scooter drone" speed="13.89" length="20.95" shape="420.64,74.85 416.12,73.70 410.42,72.64 404.70,71.68 400.09,70.85"/>
    </edge>
    <edge id=":1056968780_2" function="internal">
        <lane id=":1056968780_2_0" index="0" disallow="tram rail_urban rail rail_electric rail_fast ship container cable_car subway aircraft wheelchair scooter drone" speed="8.77" length="14.99" shape="420.64,74.85 415.52,72.81 411.96,70.68 409.98,68.46 409.56,66.14"/>
    </edge>
    <edge id=":1056968780_3" function="internal">
        <lane id=":1056968780_3_0" index="0" disallow="tram rail_urban rail rail_electric rail_fast ship container cable_car subway aircraft wheelchair scooter drone" speed="18.05" length="12.17" shape="412.72,66.63 412.75,69.76 413.49,72.30 414.23,75.06 414.23,78.85"/>
        <lane id=":1056968780_3_1" index="1" disallow="tram rail_urban rail rail_electric rail_fast ship container cable_car subway aircraft wheelchair scooter drone" speed="18.05" length="12.17" shape="412.72,66.63 411.05,78.43"/>
    </edge>
    <edge id=":1056968780_5" function="internal">
        <lane id=":1056968780_5_0" index="0" disallow="tram rail_urban rail rail_electric rail_fast ship container cable_car subway aircraft wheelchair scooter drone" speed="8.06" length="3.39" shape="412.72,66.63 411.55,69.40 411.23,69.61"/>
    </edge>
    <edge id=":1056968780_8" function="internal">
        <lane id=":1056968780_8_0" index="0" disallow="tram rail_urban rail rail_electric rail_fast ship container cable_car subway aircraft wheelchair scooter drone" speed="8.06" length="11.63" shape="411.23,69.61 409.05,71.02 405.23,71.51 400.09,70.85"/>
    </edge>
    <edge id=":1056968780_6" function="internal">
        <lane id=":1056968780_6_0" index="0" disallow="tram rail_urban rail rail_electric rail_fast ship container cable_car subway aircraft wheelchair scooter drone" speed="6.74" length="9.17" shape="404.71,77.59 404.70,75.07 403.92,73.10 402.39,71.69 400.09,70.85"/>
    </edge>
    <edge id=":1056968780_7" function="internal">
        <lane id=":1056968780_7_0" index="0" disallow="tram rail_urban rail rail_electric rail_fast ship container cable_car subway aircraft wheelchair scooter drone" speed="18.05" length="12.55" shape="404.71,77.59 405.70,73.90 407.15,71.41 408.60,69.15 409.56,66.14"/>
    </edge>
    <edge id=":1056968810_0" function="internal">
        <lane id=":1056968810_0_0" index="0" disallow="tram rail_urban rail rail_electric rail_fast ship container cable_car subway aircraft wheelchair scooter drone" speed="6.41" length="9.04" shape="177.13,571.22 174.64,571.35 172.83,572.25 171.68,573.92 171.21,576.37"/>
    </edge>
    <edge id=":1056968810_1" function="internal">
        <lane id=":1056968810_1_0" index="0" disallow="tram rail_urban rail rail_electric rail_fast ship container cable_car subway aircraft wheelchair scooter drone" speed="13.89" length="11.42" shape="177.13,571.22 165.75,570.13"/>
        <lane id=":1056968810_1_1" index="1" disallow="tram rail_urban rail rail_electric rail_fast ship container cable_car subway aircraft wheelchair scooter drone" speed="13.89" length="11.42" shape="177.43,568.04 166.07,566.95"/>
    </edge>
    <edge id=":1056968810_3" function="internal">
        <lane id=":1056968810_3_0" index="0" disallow="tram rail_urban rail rail_electric rail_fast ship container cable_car subway aircraft wheelchair scooter drone" speed="13.89" length="14.51" shape="172.10,561.88 171.21,576.37"/>
    </edge>
    <edge id=":1056968810_4" function="internal">
        <lane id=":1056968810_4_0" index="0" disallow="tram rail_urban rail rail_electric rail_fast ship container cable_car subway aircraft wheelchair scooter drone" speed="6.46" length="9.03" shape="172.10,561.88 171.56,564.31 170.38,565.96 168.55,566.84 166.07,566.95"/>
    </edge>
    <edge id=":1056968865_0" function="internal">
        <lane id=":1056968865_0_0" index="0" disallow="tram rail_urban rail rail_electric rail_fast ship container cable_car subway aircraft wheelchair scooter drone" speed="13.89" length="11.25" shape="18.10,698.08 19.05,686.87"/>
    </edge>
    <edge id=":1056968865_1" function="internal">
        <lane id=":1056968865_1_0" index="0" disallow="tram rail_urban rail rail_electric rail_fast ship container cable_car subway aircraft wheelchair scooter drone" speed="6.40" length="9.04" shape="18.10,698.08 18.63,695.64 19.81,694.00 21.65,693.15 24.14,693.10"/>
    </edge>
    <edge id=":1056968883_0" function="internal">
        <lane id=":1056968883_0_0" index="0" disallow="tram rail_urban rail rail_electric rail_fast ship container cable_car subway aircraft wheelchair scooter drone" speed="6.95" length="9.98" shape="395.84,218.16 395.83,220.99 396.63,223.17 398.26,224.70 400.70,225.58"/>
    </edge>
    <edge id=":1056968883_1" function="internal">
        <lane id=":1056968883_1_0" index="0" disallow="tram rail_urban rail rail_electric rail_fast ship container cable_car subway aircraft wheelchair scooter drone" speed="25.00" length="15.19" shape="395.84,218.16 393.66,233.23"/>
        <lane id=":1056968883_1_1" index="1" disallow="tram rail_urban rail rail_electric rail_fast ship container cable_car subway aircraft wheelchair scooter drone" speed="25.00" length="15.19" shape="392.66,217.74 390.50,232.74"/>
    </edge>
    <edge id=":1056968883_3" function="internal">
        <lane id=":1056968883_3_0" index="0" disallow="tram rail_urban rail rail_electric rail_fast ship container cable_car subway aircraft wheelchair scooter drone" speed="6.35" length="9.04" shape="379.97,221.40 382.46,221.56 384.35,220.86 385.64,219.31 386.32,216.90"/>
    </edge>
    <edge id=":1056968883_4" function="internal">
        <lane id=":1056968883_4_0" index="0" disallow="tram rail_urban rail rail_electric rail_fast ship container cable_car subway aircraft wheelchair scooter drone" speed="25.00" length="21.17" shape="379.97,221.40 400.70,225.58"/>
        <lane id=":1056968883_4_1" index="1" disallow="tram rail_urban rail rail_electric rail_fast ship container cable_car subway aircraft wheelchair scooter drone" speed="25.00" length="21.17" shape="379.31,224.54 400.09,228.72"/>
    </edge>
    <edge id=":1056968883_6" function="internal">
        <lane id=":1056968883_6_0" index="0" disallow="tram rail_urban rail rail_electric rail_fast ship container cable_car subway aircraft wheelchair scooter drone" speed="8.40" length="15.15" shape="379.31,224.54 384.54,225.99 388.15,227.85 390.13,230.10 390.50,232.74"/>
    </edge>
    <edge id=":1056968883_7" function="internal">
        <lane id=":1056968883_7_0" index="0" disallow="tram rail_urban rail rail_electric rail_fast ship container cable_car subway aircraft wheelchair scooter drone" speed="25.00" length="15.04" shape="384.18,231.75 386.32,216.90"/>
        <lane id=":1056968883_7_1" index="1" disallow="tram rail_urban rail rail_electric rail_fast ship container cable_car subway aircraft wheelchair scooter drone" speed="25.00" length="15.04" shape="387.34,232.24 389.49,217.32"/>
    </edge>
    <edge id=":1056968883_9" function="internal">
        <lane id=":1056968883_9_0" index="0" disallow="tram rail_urban rail rail_electric rail_fast ship container cable_car subway aircraft wheelchair scooter drone" speed="8.03" length="14.69" shape="387.34,232.24 388.48,229.84 390.98,228.45 394.85,228.08 400.09,228.72"/>
    </edge>
    <edge id=":1056968889_0" function="internal">
        <lane id=":1056968889_0_0" index="0" disallow="tram rail_urban rail rail_electric rail_fast ship container cable_car subway aircraft wheelchair scooter drone" speed="6.51" length="9.07" shape="353.58,589.44 351.09,589.51 349.22,590.36 347.98,591.98 347.37,594.38"/>
    </edge>
    <edge id=":1056968889_1" function="internal">
        <lane id=":1056968889_1_0" index="0" disallow="tram rail_urban rail rail_electric rail_fast ship container cable_car subway aircraft wheelchair scooter drone" speed="20.84" length="20.96" shape="353.58,589.44 332.98,585.72"/>
        <lane id=":1056968889_1_1" index="1" disallow="tram rail_urban rail rail_electric rail_fast ship container cable_car subway aircraft wheelchair scooter drone" speed="20.84" length="20.96" shape="353.94,586.26 333.28,582.53"/>
    </edge>
    <edge id=":1056968889_3" function="internal">
        <lane id=":1056968889_3_0" index="0" disallow="tram rail_urban rail rail_electric rail_fast ship container cable_car subway aircraft wheelchair scooter drone" speed="8.07" length="14.62" shape="354.29,583.08 349.11,582.14 345.51,580.65 343.50,578.63 343.07,576.06"/>
    </edge>
    <edge id=":1056968889_4" function="internal">
        <lane id=":1056968889_4_0" index="0" disallow="tram rail_urban rail rail_electric rail_fast ship container cable_car subway aircraft wheelchair scooter drone" speed="27.78" length="17.67" shape="349.42,576.87 347.37,594.38"/>
        <lane id=":1056968889_4_1" index="1" disallow="tram rail_urban rail rail_electric rail_fast ship container cable_car subway aircraft wheelchair scooter drone" speed="27.78" length="17.67" shape="346.24,576.47 344.18,594.04"/>
    </edge>
    <edge id=":1056968889_6" function="internal">
        <lane id=":1056968889_6_0" index="0" disallow="tram rail_urban rail rail_electric rail_fast ship container cable_car subway aircraft wheelchair scooter drone" speed="8.55" length="15.93" shape="346.24,576.47 345.09,579.54 342.54,581.57 338.61,582.57 333.28,582.53"/>
    </edge>
    <edge id=":1056968889_7" function="internal">
        <lane id=":1056968889_7_0" index="0" disallow="tram rail_urban rail rail_electric rail_fast ship container cable_car subway aircraft wheelchair scooter drone" speed="7.68" length="13.11" shape="337.82,593.37 337.95,588.82 337.23,585.50 335.68,583.40 333.28,582.53"/>
    </edge>
    <edge id=":1056968889_8" function="internal">
        <lane id=":1056968889_8_0" index="0" disallow="tram rail_urban rail rail_electric rail_fast ship container cable_car subway aircraft wheelchair scooter drone" speed="27.78" length="17.80" shape="337.82,593.37 339.89,575.66"/>
        <lane id=":1056968889_8_1" index="1" disallow="tram rail_urban rail rail_electric rail_fast ship container cable_car subway aircraft wheelchair scooter drone" speed="27.78" length="17.80" shape="341.00,593.70 343.07,576.06"/>
    </edge>
    <edge id=":1056968893_0" function="internal">
        <lane id=":1056968893_0_0" index="0" disallow="tram rail_urban rail rail_electric rail_fast ship container cable_car subway aircraft wheelchair scooter drone" speed="6.55" length="4.00" shape="65.01,249.62 62.66,249.03 61.39,248.10"/>
    </edge>
    <edge id=":1056968893_2" function="internal">